-------------------------------------------------------
          Amber 18 PMEMD                              2018
          -------------------------------------------------------

  [-O]verwriting output

File Assignments:

 Here is the input file:

PBC MD Simulation
 &cntrl
  imin =          0,
  ntx =           5,
  irest =         1,
  maxcyc =        0,
  ncyc =          0,
  dt =            0.002,
  nstlim =        500000,
  ntpr =          500,
  ntwe =          500,
  ntwr =          500000,
  ntwx =          250,
  ntxo =          2,
  ioutfm =        1,
  ntf =           2,
  ntc =           2,
  cut =           9.0,
  igb =           0,
  tempi =         298.15,
  temp0 =         298.15,
  ntt =           3,
  gamma_ln =      1.0,
  ig =            -1,
  ntp =           1,
  barostat =      2,
  ntr =           1,
  restraint_wt =  50.0,
  restraintmask = '@DUM',
  nmropt =        1,
  pencut =        -1,
  ntwprt =        206,
 /
 &wt type = 'END', /
DISANG = disang.rest
LISTOUT = POUT

Note: ig = -1. Setting random seed to    75030 based on wallclock time in
      microseconds.

--------------------------------------------------------------------------------
   1.  RESOURCE   USE:
--------------------------------------------------------------------------------

 getting box info from netcdf restart file
 NATOM  =    9223 NTYPES =      11 NBONH =    9067 MBONA  =     155
 NTHETH =     153 MTHETA =     232 NPHIH =     345 MPHIA  =     366
 NHPARM =       0 NPARM  =       0 NNB   =   13221 NRES   =    3022
 NBONA  =     155 NTHETA =     232 NPHIA =     366 NUMBND =      13
 NUMANG =      22 NPTRA  =      15 NATYP =      13 NPHB   =       0
 IFBOX  =       1 NMXRS  =     184 IFCAP =       0 NEXTRA =       0
 NCOPY  =       0

     BOX TYPE: RECTILINEAR

--------------------------------------------------------------------------------
   2.  CONTROL  DATA  FOR  THE  RUN
--------------------------------------------------------------------------------

default_name

General flags:
     imin    =       0, nmropt  =       1

Nature and format of input:
     ntx     =       5, irest   =       1, ntrx    =       1

Nature and format of output:
     ntxo    =       2, ntpr    =     500, ntrx    =       1, ntwr    =  500000
     iwrap   =       0, ntwx    =     250, ntwv    =       0, ntwe    =     500
     ioutfm  =       1, ntwprt  =     206, idecomp =       0, rbornstat=      0

Potential function:
     ntf     =       2, ntb     =       2, igb     =       0, nsnb    =      25
     ipol    =       0, gbsa    =       0, iesp    =       0
     dielc   =   1.00000, cut     =   9.00000, intdiel =   1.00000

Frozen or restrained atoms:
     ibelly  =       0, ntr     =       1
     restraint_wt =  50.00000

Molecular dynamics:
     nstlim  =    500000, nscm    =         0, nrespa  =         1
     t       =   0.00000, dt      =   0.00200, vlimit  =  -1.00000

Langevin dynamics temperature regulation:
     ig      =   75030
     temp0   = 298.15000, tempi   = 298.15000, gamma_ln=   1.00000

Pressure regulation:
     ntp     =       1
     pres0   =   1.00000, comp    =  44.60000, taup    =   1.00000
     Monte-Carlo Barostat:
     mcbarint  =     100

SHAKE:
     ntc     =       2, jfastw  =       0
     tol     =   0.00001

NMR refinement options:
     iscale  =       0, noeskp  =       1, ipnlty  =       1, mxsub   =       1
     scalm   = 100.00000, pencut  =  -1.00000, tausw   =   0.10000

Ewald parameters:
     verbose =       0, ew_type =       0, nbflag  =       1, use_pme =       1
     vdwmeth =       1, eedmeth =       1, netfrc  =       1
     Box X =   41.542   Box Y =   40.747   Box Z =   54.966
     Alpha =   90.000   Beta  =   90.000   Gamma =   90.000
     NFFT1 =   48       NFFT2 =   48       NFFT3 =   56
     Cutoff=    9.000   Tol   =0.100E-04
     Ewald Coefficient =  0.30768
     Interpolation order =    4

    LOADING THE CONSTRAINED ATOMS AS GROUPS

   5.  REFERENCE ATOM COORDINATES

  default_name
     Mask @DUM; matches     3 atoms

--------------------------------------------------------------------------------
   3.  ATOMIC COORDINATES AND VELOCITIES
--------------------------------------------------------------------------------

default_name
 begin time read from input coords =  7000.000 ps

           Begin reading energy term weight changes/NMR restraints
 WEIGHT CHANGES:
                         ** No weight changes given **

 RESTRAINTS:
 Requested file redirections:
  DISANG    = disang.rest
  LISTOUT   = POUT
 Restraints will be read from file: disang.rest
Here are comments from the DISANG input file:

                       Number of restraints read =     9

                  Done reading weight changes/NMR restraints

 Number of triangulated 3-point waters found:     3000

     Sum of charges from parm topology file =   0.00000002
     Forcing neutrality...

--------------------------------------------------------------------------------
   4.  RESULTS
 NSTEP =      500   TIME(PS) =    7001.000  TEMP(K) =   300.41  PRESS =     0.0
 Etot   =    -25669.2931  EKtot   =      5552.3516  EPtot      =    -31221.6447
 BOND   =        45.8762  ANGLE   =       116.8958  DIHED      =       127.4069
 1-4 NB =        77.7954  1-4 EEL =        63.0084  VDWAALS    =      4348.0128
 EELEC  =    -36005.2377  EHBOND  =         0.0000  RESTRAINT  =         4.5974
 EAMBER (non-restraint)  =    -31226.2421
 EKCMT  =         0.0000  VIRIAL  =         0.0000  VOLUME     =     92708.9092
                                                    Density    =         1.0201
 ------------------------------------------------------------------------------

      A V E R A G E S   O V E R    1000 S T E P S

 NSTEP =   500000   TIME(PS) =    8000.000  TEMP(K) =   298.24  PRESS =     0.0
 Etot   =    -25635.4424  EKtot   =      5512.4035  EPtot      =    -31147.8459
 BOND   =        52.8661  ANGLE   =       111.1390  DIHED      =       132.1973
 1-4 NB =        76.3610  1-4 EEL =        61.8593  VDWAALS    =      4308.5300
 EELEC  =    -35896.9356  EHBOND  =         0.0000  RESTRAINT  =         6.1371
 EAMBER (non-restraint)  =    -31153.9830
 EKCMT  =         0.0000  VIRIAL  =         0.0000  VOLUME     =     92981.6118
                                                    Density    =         1.0171
 ------------------------------------------------------------------------------

      R M S  F L U C T U A T I O N S

 NSTEP =   500000   TIME(PS) =    8000.000  TEMP(K) =     2.97  PRESS =     0.0
 Etot   =       100.6714  EKtot   =        54.8128  EPtot      =        84.8209
 BOND   =         6.0616  ANGLE   =         7.8695  DIHED      =         4.8203
 1-4 NB =         2.7305  1-4 EEL =         2.7083  VDWAALS    =        87.7342
 EELEC  =       138.8058  EHBOND  =         0.0000  RESTRAINT  =         2.0306
 EAMBER (non-restraint)  =        82.7903
 EKCMT  =         0.0000  VIRIAL  =         0.0000  VOLUME     =       441.2451
                                                    Density    =         0.0048
 ------------------------------------------------------------------------------
