-------------------------------------------------------
          Amber 18 PMEMD                              2018
          -------------------------------------------------------

  [-O]verwriting output

File Assignments:

 Here is the input file:

PBC MD Simulation
 &cntrl
  imin =          0,
  ntx =           5,
  irest =         1,
  maxcyc =        0,
  ncyc =          0,
  dt =            0.002,
  nstlim =        500000,
  ntpr =          500,
  ntwe =          500,
  ntwr =          500000,
  ntwx =          250,
  ntxo =          2,
  ioutfm =        1,
  ntf =           2,
  ntc =           2,
  cut =           9.0,
  igb =           0,
  tempi =         298.15,
  temp0 =         298.15,
  ntt =           3,
  gamma_ln =      1.0,
  ig =            -1,
  ntp =           1,
  barostat =      2,
  ntr =           1,
  restraint_wt =  50.0,
  restraintmask = '@DUM',
  nmropt =        1,
  pencut =        -1,
  ntwprt =        204,
 /
 &wt type = 'END', /
DISANG = disang.rest
LISTOUT = POUT

Note: ig = -1. Setting random seed to   737239 based on wallclock time in
      microseconds.

--------------------------------------------------------------------------------
   1.  RESOURCE   USE:
--------------------------------------------------------------------------------

 getting box info from netcdf restart file
 NATOM  =    9221 NTYPES =      11 NBONH =    9065 MBONA  =     155
 NTHETH =     148 MTHETA =     231 NPHIH =     343 MPHIA  =     362
 NHPARM =       0 NPARM  =       0 NNB   =   13205 NRES   =    3022
 NBONA  =     155 NTHETA =     231 NPHIA =     362 NUMBND =      16
 NUMANG =      28 NPTRA  =      15 NATYP =      14 NPHB   =       0
 IFBOX  =       1 NMXRS  =     184 IFCAP =       0 NEXTRA =       0
 NCOPY  =       0

     BOX TYPE: RECTILINEAR

--------------------------------------------------------------------------------
   2.  CONTROL  DATA  FOR  THE  RUN
--------------------------------------------------------------------------------

default_name

General flags:
     imin    =       0, nmropt  =       1

Nature and format of input:
     ntx     =       5, irest   =       1, ntrx    =       1

Nature and format of output:
     ntxo    =       2, ntpr    =     500, ntrx    =       1, ntwr    =  500000
     iwrap   =       0, ntwx    =     250, ntwv    =       0, ntwe    =     500
     ioutfm  =       1, ntwprt  =     204, idecomp =       0, rbornstat=      0

Potential function:
     ntf     =       2, ntb     =       2, igb     =       0, nsnb    =      25
     ipol    =       0, gbsa    =       0, iesp    =       0
     dielc   =   1.00000, cut     =   9.00000, intdiel =   1.00000

Frozen or restrained atoms:
     ibelly  =       0, ntr     =       1
     restraint_wt =  50.00000

Molecular dynamics:
     nstlim  =    500000, nscm    =         0, nrespa  =         1
     t       =   0.00000, dt      =   0.00200, vlimit  =  -1.00000

Langevin dynamics temperature regulation:
     ig      =  737239
     temp0   = 298.15000, tempi   = 298.15000, gamma_ln=   1.00000

Pressure regulation:
     ntp     =       1
     pres0   =   1.00000, comp    =  44.60000, taup    =   1.00000
     Monte-Carlo Barostat:
     mcbarint  =     100

SHAKE:
     ntc     =       2, jfastw  =       0
     tol     =   0.00001

NMR refinement options:
     iscale  =       0, noeskp  =       1, ipnlty  =       1, mxsub   =       1
     scalm   = 100.00000, pencut  =  -1.00000, tausw   =   0.10000

Ewald parameters:
     verbose =       0, ew_type =       0, nbflag  =       1, use_pme =       1
     vdwmeth =       1, eedmeth =       1, netfrc  =       1
     Box X =   40.152   Box Y =   39.462   Box Z =   58.627
     Alpha =   90.000   Beta  =   90.000   Gamma =   90.000
     NFFT1 =   48       NFFT2 =   40       NFFT3 =   64
     Cutoff=    9.000   Tol   =0.100E-04
     Ewald Coefficient =  0.30768
     Interpolation order =    4

    LOADING THE CONSTRAINED ATOMS AS GROUPS

   5.  REFERENCE ATOM COORDINATES

  default_name
     Mask @DUM; matches     3 atoms

--------------------------------------------------------------------------------
   3.  ATOMIC COORDINATES AND VELOCITIES
--------------------------------------------------------------------------------

default_name
 begin time read from input coords =  9000.000 ps

           Begin reading energy term weight changes/NMR restraints
 WEIGHT CHANGES:
                         ** No weight changes given **

 RESTRAINTS:
 Requested file redirections:
  DISANG    = disang.rest
  LISTOUT   = POUT
 Restraints will be read from file: disang.rest
Here are comments from the DISANG input file:

                       Number of restraints read =     9

                  Done reading weight changes/NMR restraints

 Number of triangulated 3-point waters found:     3000

     Sum of charges from parm topology file =   0.00000002
     Forcing neutrality...

--------------------------------------------------------------------------------
   4.  RESULTS
 NSTEP =      500   TIME(PS) =    9001.000  TEMP(K) =   298.05  PRESS =     0.0
 Etot   =    -25612.1490  EKtot   =      5507.6211  EPtot      =    -31119.7701
 BOND   =        58.3280  ANGLE   =       109.7128  DIHED      =       131.6089
 1-4 NB =        72.5792  1-4 EEL =        58.3596  VDWAALS    =      4307.7084
 EELEC  =    -35862.3171  EHBOND  =         0.0000  RESTRAINT  =         4.2501
 EAMBER (non-restraint)  =    -31124.0202
 EKCMT  =         0.0000  VIRIAL  =         0.0000  VOLUME     =     92800.4027
                                                    Density    =         1.0190
 ------------------------------------------------------------------------------

      A V E R A G E S   O V E R    1000 S T E P S

 NSTEP =   500000   TIME(PS) =   10000.000  TEMP(K) =   298.18  PRESS =     0.0
 Etot   =    -25641.3977  EKtot   =      5509.9718  EPtot      =    -31151.3695
 BOND   =        52.6287  ANGLE   =       108.2859  DIHED      =       133.6198
 1-4 NB =        75.4972  1-4 EEL =        62.9112  VDWAALS    =      4311.7229
 EELEC  =    -35902.1754  EHBOND  =         0.0000  RESTRAINT  =         6.1402
 EAMBER (non-restraint)  =    -31157.5096
 EKCMT  =         0.0000  VIRIAL  =         0.0000  VOLUME     =     92948.6769
                                                    Density    =         1.0174
 ------------------------------------------------------------------------------

      R M S  F L U C T U A T I O N S

 NSTEP =   500000   TIME(PS) =   10000.000  TEMP(K) =     3.05  PRESS =     0.0
 Etot   =       104.9116  EKtot   =        56.3547  EPtot      =        87.3730
 BOND   =         5.9800  ANGLE   =         7.6168  DIHED      =         5.0325
 1-4 NB =         2.6612  1-4 EEL =         2.7823  VDWAALS    =        85.6354
 EELEC  =       137.3212  EHBOND  =         0.0000  RESTRAINT  =         1.9496
 EAMBER (non-restraint)  =        85.4233
 EKCMT  =         0.0000  VIRIAL  =         0.0000  VOLUME     =       461.7632
                                                    Density    =         0.0051
 ------------------------------------------------------------------------------
