-------------------------------------------------------
          Amber 18 PMEMD                              2018
          -------------------------------------------------------

  [-O]verwriting output

File Assignments:

 Here is the input file:

PBC MD Simulation
 &cntrl
  imin =          0,
  ntx =           5,
  irest =         1,
  maxcyc =        0,
  ncyc =          0,
  dt =            0.002,
  nstlim =        500000,
  ntpr =          500,
  ntwe =          500,
  ntwr =          500000,
  ntwx =          250,
  ntxo =          2,
  ioutfm =        1,
  ntf =           2,
  ntc =           2,
  cut =           9.0,
  igb =           0,
  tempi =         298.15,
  temp0 =         298.15,
  ntt =           3,
  gamma_ln =      1.0,
  ig =            -1,
  ntp =           1,
  barostat =      2,
  ntr =           1,
  restraint_wt =  50.0,
  restraintmask = '@DUM',
  nmropt =        1,
  pencut =        -1,
  ntwprt =        206,
 /
 &wt type = 'END', /
DISANG = disang.rest
LISTOUT = POUT

Note: ig = -1. Setting random seed to    93718 based on wallclock time in
      microseconds.

--------------------------------------------------------------------------------
   1.  RESOURCE   USE:
--------------------------------------------------------------------------------

 getting new box info from bottom of inpcrd
 NATOM  =    9223 NTYPES =      11 NBONH =    9067 MBONA  =     155
 NTHETH =     153 MTHETA =     232 NPHIH =     345 MPHIA  =     366
 NHPARM =       0 NPARM  =       0 NNB   =   13221 NRES   =    3022
 NBONA  =     155 NTHETA =     232 NPHIA =     366 NUMBND =      13
 NUMANG =      22 NPTRA  =      15 NATYP =      13 NPHB   =       0
 IFBOX  =       1 NMXRS  =     184 IFCAP =       0 NEXTRA =       0
 NCOPY  =       0

     BOX TYPE: RECTILINEAR

--------------------------------------------------------------------------------
   2.  CONTROL  DATA  FOR  THE  RUN
--------------------------------------------------------------------------------

default_name

General flags:
     imin    =       0, nmropt  =       1

Nature and format of input:
     ntx     =       5, irest   =       1, ntrx    =       1

Nature and format of output:
     ntxo    =       2, ntpr    =     500, ntrx    =       1, ntwr    =  500000
     iwrap   =       0, ntwx    =     250, ntwv    =       0, ntwe    =     500
     ioutfm  =       1, ntwprt  =     206, idecomp =       0, rbornstat=      0

Potential function:
     ntf     =       2, ntb     =       2, igb     =       0, nsnb    =      25
     ipol    =       0, gbsa    =       0, iesp    =       0
     dielc   =   1.00000, cut     =   9.00000, intdiel =   1.00000

Frozen or restrained atoms:
     ibelly  =       0, ntr     =       1
     restraint_wt =  50.00000

Molecular dynamics:
     nstlim  =    500000, nscm    =         0, nrespa  =         1
     t       =   0.00000, dt      =   0.00200, vlimit  =  -1.00000

Langevin dynamics temperature regulation:
     ig      =   93718
     temp0   = 298.15000, tempi   = 298.15000, gamma_ln=   1.00000

Pressure regulation:
     ntp     =       1
     pres0   =   1.00000, comp    =  44.60000, taup    =   1.00000
     Monte-Carlo Barostat:
     mcbarint  =     100

SHAKE:
     ntc     =       2, jfastw  =       0
     tol     =   0.00001

NMR refinement options:
     iscale  =       0, noeskp  =       1, ipnlty  =       1, mxsub   =       1
     scalm   = 100.00000, pencut  =  -1.00000, tausw   =   0.10000

Ewald parameters:
     verbose =       0, ew_type =       0, nbflag  =       1, use_pme =       1
     vdwmeth =       1, eedmeth =       1, netfrc  =       1
     Box X =   37.738   Box Y =   39.761   Box Z =   62.020
     Alpha =   90.000   Beta  =   90.000   Gamma =   90.000
     NFFT1 =   40       NFFT2 =   40       NFFT3 =   64
     Cutoff=    9.000   Tol   =0.100E-04
     Ewald Coefficient =  0.30768
     Interpolation order =    4

    LOADING THE CONSTRAINED ATOMS AS GROUPS

   5.  REFERENCE ATOM COORDINATES

  default_name
     Mask @DUM; matches     3 atoms

--------------------------------------------------------------------------------
   3.  ATOMIC COORDINATES AND VELOCITIES
--------------------------------------------------------------------------------

default_name
 begin time read from input coords =  1000.000 ps

           Begin reading energy term weight changes/NMR restraints
 WEIGHT CHANGES:
                         ** No weight changes given **

 RESTRAINTS:
 Requested file redirections:
  DISANG    = disang.rest
  LISTOUT   = POUT
 Restraints will be read from file: disang.rest
Here are comments from the DISANG input file:

                       Number of restraints read =     9

                  Done reading weight changes/NMR restraints

 Number of triangulated 3-point waters found:     3000

     Sum of charges from parm topology file =   0.00000002
     Forcing neutrality...

--------------------------------------------------------------------------------
   4.  RESULTS
 NSTEP =      500   TIME(PS) =    1001.000  TEMP(K) =   299.59  PRESS =     0.0
 Etot   =    -25558.3065  EKtot   =      5537.3521  EPtot      =    -31095.6586
 BOND   =        45.4971  ANGLE   =       101.7515  DIHED      =       133.8994
 1-4 NB =        76.5302  1-4 EEL =        62.9948  VDWAALS    =      4317.4351
 EELEC  =    -35836.1292  EHBOND  =         0.0000  RESTRAINT  =         2.3625
 EAMBER (non-restraint)  =    -31098.0211
 EKCMT  =         0.0000  VIRIAL  =         0.0000  VOLUME     =     93259.2749
                                                    Density    =         1.0140
 ------------------------------------------------------------------------------

      A V E R A G E S   O V E R    1000 S T E P S

 NSTEP =   500000   TIME(PS) =    2000.000  TEMP(K) =   298.15  PRESS =     0.0
 Etot   =    -25651.8034  EKtot   =      5510.6283  EPtot      =    -31162.4316
 BOND   =        52.8323  ANGLE   =       110.7716  DIHED      =       132.4585
 1-4 NB =        76.4815  1-4 EEL =        62.7820  VDWAALS    =      4315.5473
 EELEC  =    -35918.8371  EHBOND  =         0.0000  RESTRAINT  =         5.5322
 EAMBER (non-restraint)  =    -31167.9638
 EKCMT  =         0.0000  VIRIAL  =         0.0000  VOLUME     =     92891.8312
                                                    Density    =         1.0181
 ------------------------------------------------------------------------------

      R M S  F L U C T U A T I O N S

 NSTEP =   500000   TIME(PS) =    2000.000  TEMP(K) =     3.12  PRESS =     0.0
 Etot   =        99.1770  EKtot   =        57.5797  EPtot      =        83.0773
 BOND   =         6.1461  ANGLE   =         7.7117  DIHED      =         5.2249
 1-4 NB =         2.7542  1-4 EEL =         2.6883  VDWAALS    =        85.5723
 EELEC  =       134.4285  EHBOND  =         0.0000  RESTRAINT  =         1.7571
 EAMBER (non-restraint)  =        81.3202
 EKCMT  =         0.0000  VIRIAL  =         0.0000  VOLUME     =       461.5221
                                                    Density    =         0.0051
 ------------------------------------------------------------------------------
